src/tests/data/output/raw_export_result/micro_grid_NL_T1.raw
,100.0,33,0,0,50     / Created with GridCal
(Wed Aug 27 14:00:28 2025)  HORIZON: 20241205 00H DEM: 25029.8MW
HID:4644MW,TERM:10747MW,EOL:6503MW,FV:0MW,OK
     1, 'NL_TR_BUS2  ',  15.7500, 1,      0,      0,      1,  1.00000,   0.0000,  1.05000,  0.95000,  1.10000,  0.90000
     2, 'NL_TR_BUS1  ', 220.0000, 1,      0,      0,      1,  1.00000,   0.0000,  1.05000,  0.95000,  1.10000,  0.90000
     3, 'N1230822396 ', 220.0000, 1,      0,      0,      1,  1.00000,   0.0000,  1.05000,  0.95000,  1.10000,  0.90000
     4, 'N1230822413 ',  15.7500, 1,      0,      0,      1,  1.00000,   0.0000,  1.05000,  0.95000,  1.10000,  0.90000
     5, 'NL-Busbar_5 ',  15.7500, 1,      0,      0,      1,  1.00000,   0.0000,  1.05000,  0.95000,  1.10000,  0.90000
     6, 'NL_Busbar__4', 220.0000, 1,      0,      0,      1,  1.00000,   0.0000,  1.05000,  0.95000,  1.10000,  0.90000
     7, 'NL-Busbar_3 ',  15.7500, 1,      0,      0,      1,  1.00000,   0.0000,  1.05000,  0.95000,  1.10000,  0.90000
     8, 'NL-Busbar_2 ', 220.0000, 1,      0,      0,      1,  1.00000,   0.0000,  1.05000,  0.95000,  1.10000,  0.90000
     9, 'NL-_Busbar_1', 400.0000, 1,      0,      0,      1,  1.00000,   0.0000,  1.05000,  0.95000,  1.10000,  0.90000
    10, 'N1230992201 ', 400.0000, 1,      0,      0,      1,  1.00000,   0.0000,  1.05000,  0.95000,  1.10000,  0.90000
    11, 'N1230992198 ', 400.0000, 1,      0,      0,      1,  1.00000,   0.0000,  1.05000,  0.95000,  1.10000,  0.90000
    12, 'N1230992195 ', 400.0000, 1,      0,      0,      1,  1.00000,   0.0000,  1.05000,  0.95000,  1.10000,  0.90000
    13, 'N1230992231 ', 220.0000, 1,      0,      0,      1,  1.00000,   0.0000,  1.05000,  0.95000,  1.10000,  0.90000
    14, 'N1230992228 ', 220.0000, 1,      0,      0,      1,  1.00000,   0.0000,  1.05000,  0.95000,  1.10000,  0.90000
    15, 'Border_GY11 ',   0.0000, 1,      0,      0,      1,  1.00000,   0.0000,  1.05000,  0.95000,  1.10000,  0.90000
    16, 'Border_ST23 ',   0.0000, 1,      0,      0,      1,  1.00000,   0.0000,  1.05000,  0.95000,  1.10000,  0.90000
    17, 'Border_ST24 ',   0.0000, 1,      0,      0,      1,  1.00000,   0.0000,  1.05000,  0.95000,  1.10000,  0.90000
    18, 'Border_MA11 ',   0.0000, 1,      0,      0,      1,  1.00000,   0.0000,  1.05000,  0.95000,  1.10000,  0.90000
    19, 'Border_AL11 ',   0.0000, 1,      0,      0,      1,  1.00000,   0.0000,  1.05000,  0.95000,  1.10000,  0.90000
0 / END OF BUS DATA, BEGIN LOAD DATA
     8, '1 ',      1,      0,      0,    388.8,      161,     97.2,      -69, 0.00000E+00, 0.00000E+00,      0, 0.00000E+00, 0.00000E+00
    12, '1 ',      1,      0,      0,       10,       10, 0.00000E+00,       -0, 0.00000E+00, 0.00000E+00,      0, 0.00000E+00, 0.00000E+00
    12, '2 ',      1,      0,      0,       90,      280, 0.00000E+00,       -0, 0.00000E+00, 0.00000E+00,      0, 0.00000E+00, 0.00000E+00
    18, '1 ',      1,      0,      0,   43.806,  -84.896, 0.00000E+00, 0.00000E+00, 0.00000E+00, 0.00000E+00,      0, 0.00000E+00, 0.00000E+00
    16, '1 ',      1,      0,      0,   27.396, -0.42717, 0.00000E+00, 0.00000E+00, 0.00000E+00, 0.00000E+00,      0, 0.00000E+00, 0.00000E+00
    17, '1 ',      1,      0,      0,   26.835,  -1.4925, 0.00000E+00, 0.00000E+00, 0.00000E+00, 0.00000E+00,      0, 0.00000E+00, 0.00000E+00
    15, '1 ',      1,      0,      0,   90.249,  -148.63, 0.00000E+00, 0.00000E+00, 0.00000E+00, 0.00000E+00,      0, 0.00000E+00, 0.00000E+00
    19, '1 ',      1,      0,      0,   46.927,  -79.208, 0.00000E+00, 0.00000E+00, 0.00000E+00, 0.00000E+00,      0, 0.00000E+00, 0.00000E+00
0 / END OF LOAD DATA, BEGIN FIXED SHUNT DATA
0 / END OF FIXED SHUNT DATA, BEGIN GENERATOR DATA
     7, '1 ',      140, 0.00000E+00,      200, 0.00000E+00, 1.01700E+00,      0,      250, 0.00000E+00, 0.00000E+00, 0.00000E+00, 0.00000E+00, 0.00000E+00,      1,      100,      250,      130,      1, 1.00000E+00,      0, 1.00000E+00,      0, 1.00000E+00,      0, 1.00000E+00,      0,  0.87425
     7, '2 ',      150, 0.00000E+00,      200, 0.00000E+00, 1.01700E+00,      0,      250, 0.00000E+00, 0.00000E+00, 0.00000E+00, 0.00000E+00, 0.00000E+00,      1,      100,      250,      130,      1, 1.00000E+00,      0, 1.00000E+00,      0, 1.00000E+00,      0, 1.00000E+00,      0,  0.87425
     5, '1 ',   600.49, 0.00000E+00,      600, 0.00000E+00, 1.01800E+00,      0, 1.10000E+03, 0.00000E+00, 0.00000E+00, 0.00000E+00, 0.00000E+00, 0.00000E+00,      1,      100, 1.00000E+03,      300,      1, 1.00000E+00,      0, 1.00000E+00,      0, 1.00000E+00,      0, 1.00000E+00,      0,  0.84061
0 / END OF GENERATOR DATA, BEGIN BRANCH DATA
0 / END OF BRANCH DATA, BEGIN TRANSFORMER DATA
    12,     19,      0, '1 ', 1, 1, 1,    1e-20,  0.22619, 2, '            ', 1,    1,   1.0000,    0,   1.0000,    0,   1.0000,    0,   1.0000, '            '
6.37500E-04, 7.50000E-03,     0.00
 1.00000,  400.000,    0.000,   949.86,   949.86,  1329.80,      0,      0,  1.50000,  0.51000,  1.00000,  1.00000,      5,      0,  0.00000,  0.00000,    0.000
 1.00000,    0.000
    12,     18,      0, '1 ', 1, 1, 1,    1e-20, 0.040212, 2, '            ', 1,    1,   1.0000,    0,   1.0000,    0,   1.0000,    0,   1.0000, '            '
1.45000E-03, 1.26500E-02,     0.00
 1.00000,  400.000,    0.000,   849.40,   849.40,  1189.16,      0,      0,  1.50000,  0.51000,  1.00000,  1.00000,      5,      0,  0.00000,  0.00000,    0.000
 1.00000,    0.000
    14,     17,      0, '1 ', 1, 1, 1,    1e-20, 9.79224E-03, 2, '            ', 1,    1,   1.0000,    0,   1.0000,    0,   1.0000,    0,   1.0000, '            '
1.04545E-02, 1.42562E-01,     0.00
 1.00000,  220.000,    0.000,   449.64,   449.64,   629.50,      0,      0,  1.50000,  0.51000,  1.00000,  1.00000,      5,      0,  0.00000,  0.00000,    0.000
 1.00000,    0.000
    14,     16,      0, '1 ', 1, 1, 1,    1e-20, 0.043487, 2, '            ', 1,    1,   1.0000,    0,   1.0000,    0,   1.0000,    0,   1.0000, '            '
4.54545E-03, 1.36364E-01,     0.00
 1.00000,  220.000,    0.000,   549.86,   549.86,   769.80,      0,      0,  1.50000,  0.51000,  1.00000,  1.00000,      5,      0,  0.00000,  0.00000,    0.000
 1.00000,    0.000
    12,     15,      0, '1 ', 1, 1, 1,    1e-20,   0.1038, 2, '            ', 1,    1,   1.0000,    0,   1.0000,    0,   1.0000,    0,   1.0000, '            '
2.62500E-04, 3.93750E-03,     0.00
 1.00000,  400.000,    0.000,  1249.85,  1249.85,  1749.79,      0,      0,  1.50000,  0.51000,  1.00000,  1.00000,      5,      0,  0.00000,  0.00000,    0.000
 1.00000,    0.000
    12,      8,      0, '1 ', 1, 1, 1, 8.7891e-05, -0.00069445, 2, '            ', 1,    1,   1.0000,    0,   1.0000,    0,   1.0000,    0,   1.0000, '            '
8.43750E-04, 1.74796E-02,   320.00
 0.98425,  400.000,    0.000,   320.01,   320.01,   448.01,      0,      0,  1.50000,  0.51000,  1.00000,  1.00000,     41,      0,  0.00000,  0.00000,    0.000
 1.00000,  220.000
    14,      7,      0, '1 ', 1, 1, 1, 5.543e-05, -0.00043297, 2, '            ', 1,    1,   1.0000,    0,   1.0000,    0,   1.0000,    0,   1.0000, '            '
1.42857E-04, 1.11102E-02,  1260.00
 1.00000,  220.000,    0.000,  1259.98,  1259.98,  1763.98,      0,      0,  1.50000,  0.51000,  1.00000,  1.00000,     34,      0,  0.00000,  0.00000,    0.000
 1.00000,   15.750
     8,      5,      0, '1 ', 1, 1, 1, 5.543e-05, -0.00043297, 2, '            ', 1,    1,   1.0000,    0,   1.0000,    0,   1.0000,    0,   1.0000, '            '
1.34921E-04, 1.11103E-02,  1260.00
 1.03226,  220.000,    0.000,  1259.98,  1259.98,  1763.98,      0,      0,  1.50000,  0.51000,  1.00000,  1.00000,     31,      0,  0.00000,  0.00000,    0.000
 1.00000,   15.750
0 / END OF TRANSFORMER DATA, BEGIN AREA INTERCHANGE DATA
     1,      0, 0.00000E+00, 0.00000E+00, 'NL          '
0 / END OF AREA INTERCHANGE DATA, BEGIN TWO-TERMINAL DC LINE DATA
0 / END OF TWO-TERMINAL DC LINE DATA, BEGIN VSC DC LINE DATA
0 / END OF VSC DC LINE DATA, BEGIN IMPEDANCE CORRECTION DATA
0 / END OF IMPEDANCE CORRECTION DATA, BEGIN MULTI-TERMINAL DC LINE DATA
0 / END OF MULTI-TERMINAL DC LINE DATA, BEGIN MULTI-SECTION LINE GROUP DATA
0 / END OF MULTI-SECTION LINE GROUP DATA, BEGIN ZONE DATA
     1, 'TENNET TSO B.V.'
0 / END OF ZONE DATA, BEGIN INTER-AREA TRANSFER DATA
0 / END OF INTER-AREA TRANSFER DATA, BEGIN OWNER DATA
   1, 'default     '
0 / END OF OWNER DATA, BEGIN FACTS DEVICE DATA
0 / END OF FACTS DEVICE DATA, BEGIN SWITCHED SHUNT DATA
    12,      0,      0,      1, 1.00000E+00, 1.00000E+00,      0, 1.00000E+00, '',    1e-20,      1,    50.08,      0, 0.00000E+00,      0, 0.00000E+00,      0, 0.00000E+00,      0, 0.00000E+00,      0, 0.00000E+00,      0, 0.00000E+00,      0, 0.00000E+00
0 / END OF SWITCHED SHUNT DATA, BEGIN GNE DATA
0 / END OF GNE DATA, BEGIN SUBSTATION DATA
0 / END OF SUBSTATION DATA
Q
